8ZYP - prepared_ligand
     RDKit          3D

  0  0  0  0  0  0  0  0  0  0999 V3000
M  V30 BEGIN CTAB
M  V30 COUNTS 56 58 0 0 1
M  V30 BEGIN ATOM
M  V30 1 C 147.276529 160.248563 133.122210 0
M  V30 2 C 148.013309 159.064639 133.135568 0
M  V30 3 C 147.332627 157.863333 133.344411 0
M  V30 4 C 145.281936 158.976295 133.512049 0
M  V30 5 C 145.895664 160.212505 133.335105 0
M  V30 6 C 143.783881 158.846987 133.714276 0
M  V30 7 C 148.094396 156.536459 133.344150 0
M  V30 8 C 147.697427 155.500792 134.428121 0
M  V30 9 C 145.615954 154.516452 135.588294 0
M  V30 10 C 144.091988 154.490473 135.396928 0
M  V30 11 C 143.810793 153.607677 134.165776 0 CFG=2
M  V30 12 C 144.385707 154.252330 132.888934 0
M  V30 13 C 145.903455 154.333636 133.023389 0
M  V30 14 C 142.311675 153.400099 133.921442 0
M  V30 15 C 141.916627 152.129499 133.245178 0
M  V30 16 C 140.590397 151.997698 132.846976 0
M  V30 17 C 140.158143 150.835998 132.235858 0
M  V30 18 C 141.049664 149.789534 131.995841 0
M  V30 19 C 142.380645 149.912254 132.374720 0
M  V30 20 C 142.816139 151.077684 132.991673 0
M  V30 21 C 139.146516 146.766625 129.868386 0
M  V30 22 N 145.981721 157.819432 133.512105 0
M  V30 23 N 146.207682 155.137373 134.308096 0 CFG=2 CHG=1
M  V30 24 N 140.646583 148.613485 131.363503 0
M  V30 25 O 138.065571 148.815433 131.278659 0
M  V30 26 O 139.409851 149.405183 129.208518 0
M  V30 27 O 141.510454 154.286214 134.232482 0
M  V30 28 S 139.186658 148.555370 130.375741 0
M  V30 29 H 147.769280 161.190731 132.948734 0
M  V30 30 H 149.082175 159.084427 132.978805 0
M  V30 31 H 145.314770 161.120826 133.364021 0
M  V30 32 H 143.562599 158.375482 134.671477 0
M  V30 33 H 143.289637 159.818386 133.692611 0
M  V30 34 H 143.346407 158.229726 132.929172 0
M  V30 35 H 149.149264 156.750238 133.456112 0
M  V30 36 H 148.031816 156.105380 132.347201 0
M  V30 37 H 147.831338 155.921772 135.425683 0
M  V30 38 H 148.251745 154.563598 134.355404 0
M  V30 39 H 146.054676 153.524936 135.698494 0
M  V30 40 H 145.927908 155.138984 136.417937 0
M  V30 41 H 143.705925 155.505428 135.278406 0
M  V30 42 H 143.642647 154.062594 136.294750 0
M  V30 43 H 144.279421 152.648015 134.358622 0
M  V30 44 H 143.972224 155.246835 132.702671 0
M  V30 45 H 144.181945 153.641601 132.006387 0
M  V30 46 H 146.320699 154.863703 132.171041 0
M  V30 47 H 146.380934 153.357366 133.121599 0
M  V30 48 H 139.870503 152.788936 133.005054 0
M  V30 49 H 139.119776 150.788391 131.969043 0
M  V30 50 H 143.084493 149.113912 132.183266 0
M  V30 51 H 143.861965 151.116728 133.242908 0
M  V30 52 H 138.351733 146.280904 130.424606 0
M  V30 53 H 138.978244 146.684000 128.796116 0
M  V30 54 H 140.096411 146.346615 130.153227 0
M  V30 55 H 145.737120 156.027155 134.195666 0
M  V30 56 H 141.378886 147.954225 131.138914 0
M  V30 END ATOM
M  V30 BEGIN BOND
M  V30 1 2 2 1
M  V30 2 1 3 2
M  V30 3 1 5 1
M  V30 4 2 5 4
M  V30 5 1 6 4
M  V30 6 1 7 3
M  V30 7 1 8 7
M  V30 8 1 10 9
M  V30 9 1 11 10
M  V30 10 1 12 11
M  V30 11 1 13 12
M  V30 12 1 14 11
M  V30 13 1 15 14
M  V30 14 2 16 15
M  V30 15 1 17 16
M  V30 16 2 18 17
M  V30 17 1 19 18
M  V30 18 1 20 15
M  V30 19 2 20 19
M  V30 20 2 22 3
M  V30 21 1 22 4
M  V30 22 1 23 8
M  V30 23 1 23 9
M  V30 24 1 23 13
M  V30 25 1 24 18
M  V30 26 2 27 14
M  V30 27 1 28 21
M  V30 28 1 28 24
M  V30 29 2 28 25
M  V30 30 2 28 26
M  V30 31 1 29 1
M  V30 32 1 30 2
M  V30 33 1 31 5
M  V30 34 1 32 6
M  V30 35 1 33 6
M  V30 36 1 34 6
M  V30 37 1 35 7
M  V30 38 1 36 7
M  V30 39 1 37 8
M  V30 40 1 38 8
M  V30 41 1 39 9
M  V30 42 1 40 9
M  V30 43 1 41 10
M  V30 44 1 42 10
M  V30 45 1 11 43 CFG=1
M  V30 46 1 44 12
M  V30 47 1 45 12
M  V30 48 1 46 13
M  V30 49 1 47 13
M  V30 50 1 48 16
M  V30 51 1 49 17
M  V30 52 1 50 19
M  V30 53 1 51 20
M  V30 54 1 52 21
M  V30 55 1 53 21
M  V30 56 1 54 21
M  V30 57 1 23 55 CFG=3
M  V30 58 1 56 24
M  V30 END BOND
M  V30 END CTAB
M  END
>  <i_m_Source_File_Index>  (1) 
1

>  <i_pdb_PDB_Model>  (1) 
1

>  <b_m_subgroup_collapsed>  (1) 
0

>  <b_ppw_created_disulfur>  (1) 
1

>  <b_ppw_prepared>  (1) 
1

>  <r_i_Bend_Energy-S-OPLS>  (1) 
1759.8820696345599

>  <r_i_Dihedral_Energy-S-OPLS>  (1) 
1363.4132813521601

>  <r_i_El-14_Energy-S-OPLS>  (1) 
1768.14201110708

>  <r_i_Electrostatic_Energy-S-OPLS>  (1) 
-4232.0977313469702

>  <r_i_LJ-14_Energy-S-OPLS>  (1) 
4316.5475678457396

>  <r_i_Max_Derivative-S-OPLS>  (1) 
4.8949005724682397

>  <r_i_Potential_Energy-S-OPLS>  (1) 
-1907.8150484031701

>  <r_i_RMS_Derivative-S-OPLS>  (1) 
0.11195432653024601

>  <r_i_Stretch_Energy-S-OPLS>  (1) 
431.30531526890798

>  <r_i_Van_der_Waals_Energy-S-OPLS>  (1) 
-7559.8391509495796

>  <r_i_target_temperature>  (1) 
298

>  <r_pdb_PDB_EXPDTA_PH>  (1) 
7.4000000953674299

>  <r_pdb_PDB_RESOLUTION>  (1) 
3.1900000572204599

>  <r_ppw_preprocess_pH>  (1) 
7.4000000000000004

>  <s_m_Source_File>  (1) 
proteinprep_1-out.maegz

>  <s_m_Source_Path>  (1) 
none

>  <s_m_entry_id>  (1) 
28

>  <s_m_entry_name>  (1) 
8ZYP.1_ligand

>  <s_m_job_name>  (1) 
proteinprep_1

>  <s_m_subgroup_title>  (1) 
proteinprep_1-out->8ZYP - prepared_split_by_structure

>  <s_m_subgroupid>  (1) 
proteinprep_1-out->8ZYP - prepared_split_by_structure

>  <s_pdb_PDB_CLASSIFICATION>  (1) 
TRANSPORT PROTEIN

>  <s_pdb_PDB_DEPOSITION_DATE>  (1) 
2024-06-18

>  <s_pdb_PDB_EXPDTA>  (1) 
ELECTRON MICROSCOPY

>  <s_pdb_PDB_ID>  (1) 
8ZYP

>  <s_pdb_PDB_REMARK_350_Biomolecule_1_Transform_1_Chains>  (1) 
A, B, C, D

>  <s_pdb_PDB_REMARK_350_Biomolecule_1_Transform_1_Matrix_1>  (1) 
1.000000 0.000000 0.000000   0.000000;0.000000 1.000000 0.000000   0.000000;0.000000 0.000000 1.000000   0.000000

>  <s_pdb_PDB_REMARK_900_Related_Entry_1_content_type>  (1) 
associated EM volume

>  <s_pdb_PDB_REMARK_900_Related_Entry_1_db_id>  (1) 
EMD-60575

>  <s_pdb_PDB_REMARK_900_Related_Entry_1_db_name>  (1) 
EMDB

>  <s_pdb_PDB_REMARK_900_Related_Entry_1_details>  (1) 
Structure of Ionchannel

>  <s_pdb_PDB_TITLE>  (1) 
Cryo-EM Structure of E-4031-bound hERG Channel

>  <s_pdb_PDB_format_version>  (1) 
5.398

>  <s_pdb_PDB_source_format>  (1) 
mmcif_pdbx.dic

>  <s_ppw_het_states>  (1) 
eJztVsFu2zAM/ZXA59QQKZGi9itFYRid2wXwksFOBwxB/r2UNZd2Dh3Q5ehLQD+TfCKfHuJL1fzuhvFwOjbVtx0n8G6/U6zt37qMXCrQ38dL9fyjHV67MT88Mvu437mn/S6HYmH6CIOzECxEC72FwUKykC00tmBswdjI2MjYyNjI2MjYyNjI2MjYyNjI2NjY2NjY2NjYeGLTuDoN33XRi/2V1eHf1U1AXhXYWstGwZZb1rYCyHrknZceawA/SgqQS8BUKAKAaVGGBVOkiLEClhk8ZUQDyixyA2SRwFQsAoJpuWpK5aRwA+TNogldNF4DdtL8rkg/A9O0+QLMJWVasowJYDsp0dx0LplmYdsYu1sAZgDtZsxAvgm/umPbn//oVcDaxejUdRgheklKVv3szm3flJzDZLhLhTglI6AH0RIvgT1fNXt8Pg2dvjy+9b0+Ho4vp2Y8DwtkbE7D4fWg7RR8afux07rNz4u7tvl58/N9/OxqcjERxIAAjtSonxna1RGCICZxTpMpwebo+zn6YSHfZunN0l+2dACAJMlF71WMBPwPT6ujOUpKkZElH6vCML1BceARxUdhbeg3t/+n2xff45vbN7ffwe1QS3TOs0gSL+jk0z9wrIPoDCyRUwiBzexQ58/56FC5RCLJ183+dL2+A5yVesc=

>  <s_ppw_prepared_with_version>  (1) 
2025-1

$$$$
